RUNSPEC

METRIC

DIMENS
184 334 69 /

EQLDIMS
4
/

AQUDIMS
2
/

OIL
WATER
--GAS
--DISGAS
--VAPOIL

--MESSAGES
-- --------------- print limit --------------  ---------------- stop limit ----------------
--   mes     com    war     prb    err   bug      mes     com    war     prb    err   bug
--    1       2      3       4      5     6        1       2      3       4      5     6
--   200000  200000 200000   6000    200    1     200000  200000 200000   6000    200    1  /

WELLDIMS
-- MaxWells  MaxCompl  MaxGroups   MaxWellsPerGroup   MaxSeparatorStages
     100        293        10             100             /
TABDIMS
--   1       2      3       4      5      6      7
-- NTSFUN  NTPVT  NSSFUN  NPPVT  NTFIP  NRPVT  unused  NTENDP
     1      2      1*     100     2     100     /
REGDIMS
--    1      2       3       4        5          6           7
--  NTFIP  NMFIPR  NRFREG  NTFREG  maxTRACK  maxCOALNUM  maxOPERNUM
      2     1       1*      1*       1*         1*          1*   /
FAULTDIM
100000 /

ENDSCALE
/

START
 01 'JAN' 1991 /
/


GRID

NEWTRAN

INCLUDE
'GEOL_SAIT/grid.ecl' / -- grid

INCLUDE
'GEOL_SAIT/ntg.ecl' / -- NTG

INCLUDE
'GEOL_SAIT/poro_031012.map' /


NOECHO


ARITHMETIC
PORO(,,67:69)=(PORO<0.16)*PORO*1.5 + (PORO>0.16)*PORO 
PERMX(,,1:20) = (5E-03)*EXP(49.8*poro) 
PERMX(,,21:69)=(4E-02)*EXP(45.8*poro) 
PERMX(,,1:69) = PERMX * 0.775862069 
PERMX(,,67:69)=(PERMX<100)*PERMX*2 + (PERMX>=100)*PERMX 
/

COPY
PERMX PERMY /
PERMX PERMZ /
/

MULTIPLY
PERMZ 0.1 /
/

MINPV
2
/

INCLUDE
'GEOL_SAIT/MULTPV20140205.map' /
 /

ARITHMETIC
MULTPV(,,1:66) = (MULTPV!=1)*60+(MULTPV==1)*1
 /

PROPS
DENSITY
906 1190 1*
/
906 1190 1*
/

PVTW
192 1 5e-5 1.56 0
 /
197 1 5e-5 1.56 0
 /

PVCDO
192	1.041	5.5e-5	46.7	0.00388
/
197	1.041   7e-5	25.3	0.00388
/

SCALECRS
YES
/

SWOF
0.141000	0.000000	1.000000	1.000000
0.150880	0.001200	0.976600	0.850393
0.160760	0.002400	0.953100	0.370155
0.170640	0.003500	0.929700	0.227549
0.180520	0.004700	0.906200	0.161119
0.190400	0.005900	0.882800	0.123269
0.200280	0.007100	0.859300	0.099046
0.210160	0.008300	0.835900	0.082319
0.220040	0.009400	0.812400	0.070131
0.229920	0.010600	0.789000	0.060888
0.239800	0.011800	0.765500	0.053656
0.249680	0.013000	0.742100	0.047857
0.259560	0.014100	0.718600	0.043112
0.269440	0.015300	0.695200	0.039164
0.279320	0.016500	0.671800	0.035832
0.289200	0.017700	0.648300	0.032985
0.299080	0.018900	0.624900	0.030526
0.308960	0.020000	0.601400	0.028384
0.318840	0.021200	0.578000	0.026503
0.328720	0.022400	0.554500	0.024838
0.338600	0.023600	0.531100	0.023355
0.348480	0.024800	0.507600	0.022027
0.358360	0.025900	0.484200	0.020831
0.368240	0.027100	0.460700	0.019749
0.378120	0.028300	0.437300	0.018766
0.388000	0.029500	0.413800	0.017869
0.397880	0.030600	0.390400	0.017047
0.407760	0.031800	0.367000	0.016292
0.417640	0.033000	0.343500	0.015597
0.427520	0.034200	0.320100	0.014953
0.437400	0.035400	0.296600	0.014357
0.447280	0.036500	0.273200	0.013803
0.457160	0.037700	0.249700	0.013287
0.467040	0.038900	0.226300	0.012806
0.476920	0.040100	0.202800	0.012355
0.486800	0.041300	0.179400	0.011933
0.496680	0.042400	0.155900	0.011536
0.506560	0.043600	0.132500	0.011163
0.516440	0.044800	0.109000	0.010811
0.526320	0.046000	0.085600	0.010480
0.536200	0.047100	0.063500	0.010166
0.546080	0.047800	0.051500	0.009869
0.555960	0.049200	0.041600	0.009588
0.565840	0.050800	0.033400	0.009321
0.575720	0.052500	0.026100	0.009067
0.585600	0.054700	0.019400	0.008826
0.595480	0.057100	0.013200	0.008596
0.605360	0.060300	0.008300	0.008377
0.615240	0.064400	0.004500	0.008168
0.625120	0.070700	0.002200	0.007969
0.635000	0.077000	0.000000	0.007778
1.000000	1.000000	0.000000	0.000000
 /

INCLUDE
'GEOL_SAIT/swatinit.ecl' /
INCLUDE
'GEOL_SAIT/swcr_mult.map' /

ARITHMETIC
SWL(,,1:65) = 0.4769 * ((PERMX) ^ -0.128) /
SWL(,,1:65) = SWL*0.2 /
SWL(,,1:65) = SWL*(SWATINIT >= SWL) + SWATINIT*(SWATINIT < SWL)
SWL=SWCR*SWL
SOWCR(,,1:65) = (1 - (0.0003*PERMX+0.4992))*(1-SWATINIT)
SWL(,,66:69)=0 /
SOWCR(,,66:69)=0 /
SOWCR = MAX(SOWCR, 0.01)
/


COPY
 SWL SWCR /
/

ROCK
 197 5E-005 
/
 197 5E-005 
/

REGIONS

ARITHMETIC
pvtnum(,,1:20)=1 
pvtnum(,,21:69)=2
/
INCLUDE
'GEOL_SAIT/eqlnum.inc' /
 /

SOLUTION

EQUIL
     1690.8   197   1690.8    1*     1*    1*    1	1	2*   /
     1690.8   197   1690.8    1*     1*    1*    1	1	2*   /
     1690.8   197   50    1*     1*    1*    1	1	2*   /
     1690.8   197   50    1*     1*    1*    1	1	2*   /
/

RSVD
1680.0 15.6
1690 15.6
/
1680.0 15.6
1690 15.6
/
1680.0 15.6
1690 15.6
/
1680.0 15.6
1690 15.6
/

AQUCT
--	N	H	P	k	m	cf+cw	Rad  h	angle
	1 1691 197 100 0.2 0.000001 2000 20 1* /
	2 1687 197 100 0.2 0.000001 1000 20 1* / 
 /

--INCLUDE
--'GEOL_SAIT\aquancon_south.inc' /

--INCLUDE
--'GEOL_SAIT\Saitovo_swof_5_aquancon.inc' /

SUMMARY

RECU

Delt 1 month
Rate 1 month EXACT FIELD WELL end
Freq 1  1  1


Array EQUA year end
1/
GENE rest

EFOR WELL 'DD.MM.YYYY' MDL MDU RAD SKIN MULT

EUNI METRes METRes /

HFOR WELL 'DD.MM.YYYY' QOIL QWAT QWIN WEFA THP BHP

HUNI
sm3/day sm3/day ksm3 ksm3 bara /

INCLUDE 
  'INCL\well.txt' /
INCLUDE 
  'INCL\perf.txt' /
INCLUDE 
  'INCL\event.inc' /
INCLUDE 
  'INCL\hist.inc' /

READ 1 MAR 2014 /

STOP

